2024_89_CemigReconfigurationCases/1_AlimsCemig/SRS10/SRS10CargaBT_Dez.dss
new load.3001033899M1 bus1=RML1052361352.1.0,Phases=1,kv=0.127,kW=0.31276,pf=0.92,Vminpu=0.92,Vmaxpu=1.5,model=1,daily=RES2_27,status=variable
new load.3001033908M1 bus1=RML1052361527.1.0,Phases=1,kv=0.127,kW=0.9349,pf=0.92,Vminpu=0.92,Vmaxpu=1.5,model=1,daily=RES1_24,status=variable
new load.3001033918M1 bus1=RML1052363277.1.2.3.0,Phases=3,kv=0.22,kW=1.05802,pf=0.92,Vminpu=0.92,Vmaxpu=1.5,model=1,daily=RES4_20,status=variable
new load.3001033928M1 bus1=RML1052363368.2.0,Phases=1,kv=0.127,kW=0.30798,pf=0.92,Vminpu=0.92,Vmaxpu=1.5,model=1,daily=RES2_27,status=variable
new load.3001033937M1 bus1=RML1052364313.2.0,Phases=1,kv=0.127,kW=0.09072,pf=0.92,Vminpu=0.92,Vmaxpu=1.5,model=1,daily=RES2_27,status=variable
new load.3001033946M1 bus1=RML1052363403.1.2.0,Phases=2,kv=0.22,kW=0.26262,pf=0.92,Vminpu=0.92,Vmaxpu=1.5,model=1,daily=RES2_27,status=variable
new load.3001033954M1 bus1=RML1052364194.1.0,Phases=1,kv=0.127,kW=0.27456,pf=0.92,Vminpu=0.92,Vmaxpu=1.5,model=1,daily=RES2_27,status=variable
new load.3001033962M1 bus1=RML1052363963.3.0,Phases=1,kv=0.127,kW=0.36898,pf=0.92,Vminpu=0.92,Vmaxpu=1.5,model=1,daily=COM1_25,status=variable
new load.3001033970M1 bus1=RML1052363781.1.0,Phases=1,kv=0.127,kW=0.62792,pf=0.92,Vminpu=0.92,Vmaxpu=1.5,model=1,daily=RES1_24,status=variable
new load.3001033980M1 bus1=RML1052363235.2.3.0,Phases=2,kv=0.22,kW=0.27694,pf=0.92,Vminpu=0.92,Vmaxpu=1.5,model=1,daily=RES2_27,status=variable
new load.3001033988M1 bus1=RML1052363648.1.0,Phases=1,kv=0.127,kW=0.26978,pf=0.92,Vminpu=0.92,Vmaxpu=1.5,model=1,daily=RES2_27,status=variable
new load.3001033997M1 bus1=RML1052361569.1.0,Phases=1,kv=0.127,kW=0.31754,pf=0.92,Vminpu=0.92,Vmaxpu=1.5,model=1,daily=RES2_27,status=variable
new load.3001034006M1 bus1=RML1052361212.1.0,Phases=1,kv=0.127,kW=0.191,pf=0.92,Vminpu=0.92,Vmaxpu=1.5,model=1,daily=RES2_27,status=variable
new load.3001034014M1 bus1=RML1052361016.1.0,Phases=1,kv=0.127,kW=0.33664,pf=0.92,Vminpu=0.92,Vmaxpu=1.5,model=1,daily=RES2_27,status=variable
new load.3001034025M1 bus1=RML1052360925.1.0,Phases=1,kv=0.127,kW=0.64186,pf=0.92,Vminpu=0.92,Vmaxpu=1.5,model=1,daily=RES1_24,status=variable
new load.3001034033M1 bus1=RML1053928708.2.3.0,Phases=2,kv=0.22,kW=0.69238,pf=0.92,Vminpu=0.92,Vmaxpu=1.5,model=1,daily=RES3_19,status=variable
new load.3001034041M1 bus1=RML1052360820.1.3.0,Phases=2,kv=0.22,kW=0.24592,pf=0.92,Vminpu=0.92,Vmaxpu=1.5,model=1,daily=RES2_27,status=variable
new load.3001034049M1 bus1=RML1052359602.1.0,Phases=1,kv=0.127,kW=0.22682,pf=0.92,Vminpu=0.92,Vmaxpu=1.5,model=1,daily=RES2_27,status=variable
new load.3001034061M1 bus1=RML1052359651.3.0,Phases=1,kv=0.127,kW=0.73954,pf=0.92,Vminpu=0.92,Vmaxpu=1.5,model=1,daily=RES1_24,status=variable
new load.3001034079M1 bus1=RML1052359189.2.0,Phases=1,kv=0.127,kW=0.16952,pf=0.92,Vminpu=0.92,Vmaxpu=1.5,model=1,daily=RES2_27,status=variable
new load.3001034089M1 bus1=RML1052358888.2.0,Phases=1,kv=0.127,kW=0.38438,pf=0.92,Vminpu=0.92,Vmaxpu=1.5,model=1,daily=RES2_27,status=variable
new load.3001034098M1 bus1=RML1053737958.1.2.3.0,Phases=3,kv=0.22,kW=0.04298,pf=0.92,Vminpu=0.92,Vmaxpu=1.5,model=1,daily=COM1_25,status=variable
new load.3001034108M1 bus1=RML1052358958.3.0,Phases=1,kv=0.127,kW=0.1535,pf=0.92,Vminpu=0.92,Vmaxpu=1.5,model=1,daily=RES1_24,status=variable
new load.3001034116M1 bus1=RML1052358650.1.0,Phases=1,kv=0.127,kW=0.35812,pf=0.92,Vminpu=0.92,Vmaxpu=1.5,model=1,daily=RES2_27,status=variable
new load.3001034126M1 bus1=RML1052358265.1.0,Phases=1,kv=0.127,kW=0.43086,pf=0.92,Vminpu=0.92,Vmaxpu=1.5,model=1,daily=RES4_20,status=variable
new load.3001034137M1 bus1=RML1052359217.1.2.3.0,Phases=3,kv=0.22,kW=1.62336,pf=0.92,Vminpu=0.92,Vmaxpu=1.5,model=1,daily=IND3_22,status=variable
new load.3001034149M1 bus1=RML1052359462.2.0,Phases=1,kv=0.127,kW=0.44652,pf=0.92,Vminpu=0.92,Vmaxpu=1.5,model=1,daily=RES1_24,status=variable
new load.3001033901M1 bus1=RML1052361387.2.3.0,Phases=2,kv=0.22,kW=0.86512,pf=0.92,Vminpu=0.92,Vmaxpu=1.5,model=1,daily=RES1_24,status=variable
new load.3001033910M1 bus1=RML1052361576.3.0,Phases=1,kv=0.127,kW=0.17428,pf=0.92,Vminpu=0.92,Vmaxpu=1.5,model=1,daily=RES2_27,status=variable
new load.3001033920M1 bus1=RML1052363242.3.0,Phases=1,kv=0.127,kW=0.77504,pf=0.92,Vminpu=0.92,Vmaxpu=1.5,model=1,daily=RES4_20,status=variable
new load.3001033940M1 bus1=RML1052364285.2.0,Phases=1,kv=0.127,kW=0.1528,pf=0.92,Vminpu=0.92,Vmaxpu=1.5,model=1,daily=RES2_27,status=variable
new load.3001033956M1 bus1=RML1052364180.2.0,Phases=1,kv=0.127,kW=0.39872,pf=0.92,Vminpu=0.92,Vmaxpu=1.5,model=1,daily=RES2_27,status=variable
new load.3001033964M1 bus1=RML1052363984.3.0,Phases=1,kv=0.127,kW=0.70848,pf=0.92,Vminpu=0.92,Vmaxpu=1.5,model=1,daily=RES3_19,status=variable
new load.3001033972M1 bus1=RML1052364054.3.0,Phases=1,kv=0.127,kW=0.32232,pf=0.92,Vminpu=0.92,Vmaxpu=1.5,model=1,daily=RES2_27,status=variable
new load.3001033982M1 bus1=RML1052363228.1.0,Phases=1,kv=0.127,kW=0.20054,pf=0.92,Vminpu=0.92,Vmaxpu=1.5,model=1,daily=RES2_27,status=variable
new load.3001033990M1 bus1=RML1052363627.3.0,Phases=1,kv=0.127,kW=0.5378,pf=0.92,Vminpu=0.92,Vmaxpu=1.5,model=1,daily=RES3_19,status=variable
new load.3001033999M1 bus1=RML1060802283.1.3.0,Phases=2,kv=0.22,kW=0.42832,pf=0.92,Vminpu=0.92,Vmaxpu=1.5,model=1,daily=RES3_19,status=variable
new load.3001034008M1 bus1=RML1052361226.2.0,Phases=1,kv=0.127,kW=0.22204,pf=0.92,Vminpu=0.92,Vmaxpu=1.5,model=1,daily=RES2_27,status=variable
new load.3001034016M1 bus1=RML1052361464.1.2.3.0,Phases=3,kv=0.22,kW=0.10388,pf=0.92,Vminpu=0.92,Vmaxpu=1.5,model=1,daily=COM1_25,status=variable
new load.3001034035M1 bus1=RML1052359483.1.2.0,Phases=2,kv=0.22,kW=0.53136,pf=0.92,Vminpu=0.92,Vmaxpu=1.5,model=1,daily=RES3_19,status=variable
new load.3001034043M1 bus1=RML1060991569.2.0,Phases=1,kv=0.127,kW=0.08372,pf=0.92,Vminpu=0.92,Vmaxpu=1.5,model=1,daily=RES1_24,status=variable
new load.3001034055M1 bus1=RML1052359532.1.0,Phases=1,kv=0.127,kW=0.23398,pf=0.92,Vminpu=0.92,Vmaxpu=1.5,model=1,daily=RES2_27,status=variable
new load.3001034081M1 bus1=RML1052359070.1.2.3.0,Phases=3,kv=0.22,kW=0.89528,pf=0.92,Vminpu=0.92,Vmaxpu=1.5,model=1,daily=RES3_19,status=variable
new load.3001034091M1 bus1=RML1052358853.2.3.0,Phases=2,kv=0.22,kW=0.58612,pf=0.92,Vminpu=0.92,Vmaxpu=1.5,model=1,daily=RES3_19,status=variable
new load.3001034100M1 bus1=RML1053737965.1.2.3.0,Phases=3,kv=0.22,kW=0.26024,pf=0.92,Vminpu=0.92,Vmaxpu=1.5,model=1,daily=RES2_27,status=variable
new load.3001034110M1 bus1=RML1052358895.1.0,Phases=1,kv=0.127,kW=0.27694,pf=0.92,Vminpu=0.92,Vmaxpu=1.5,model=1,daily=RES2_27,status=variable
new load.3001034118M1 bus1=RML1052358615.1.3.0,Phases=2,kv=0.22,kW=0.75358,pf=0.92,Vminpu=0.92,Vmaxpu=1.5,model=1,daily=RES3_19,status=variable
new load.3001034129M1 bus1=RML1052358237.2.3.0,Phases=2,kv=0.22,kW=0.05582,pf=0.92,Vminpu=0.92,Vmaxpu=1.5,model=1,daily=RES1_24,status=variable
new load.3001034140M1 bus1=RML1052359273.1.2.3.0,Phases=3,kv=0.22,kW=0.4263,pf=0.92,Vminpu=0.92,Vmaxpu=1.5,model=1,daily=COM1_25,status=variable
new load.3001034151M1 bus1=RML1052359413.1.0,Phases=1,kv=0.127,kW=0.50734,pf=0.92,Vminpu=0.92,Vmaxpu=1.5,model=1,daily=RES4_20,status=variable
new load.3001033900M1 bus1=RML1052361373.1.0,Phases=1,kv=0.127,kW=1.00466,pf=0.92,Vminpu=0.92,Vmaxpu=1.5,model=1,daily=RES1_24,status=variable
new load.3001033909M1 bus1=RML1052361513.1.0,Phases=1,kv=0.127,kW=0.34618,pf=0.92,Vminpu=0.92,Vmaxpu=1.5,model=1,daily=RES2_27,status=variable
new load.3001033919M1 bus1=RML1052363263.1.0,Phases=1,kv=0.127,kW=0.65582,pf=0.92,Vminpu=0.92,Vmaxpu=1.5,model=1,daily=RES1_24,status=variable
new load.3001033929M1 bus1=RML1052363382.2.0,Phases=1,kv=0.127,kW=0.39632,pf=0.92,Vminpu=0.92,Vmaxpu=1.5,model=1,daily=RES2_27,status=variable
new load.3001033938M1 bus1=RML1052364327.3.0,Phases=1,kv=0.127,kW=0.2865,pf=0.92,Vminpu=0.92,Vmaxpu=1.5,model=1,daily=RES2_27,status=variable
new load.3001033947M1 bus1=RML1052363424.1.0,Phases=1,kv=0.127,kW=0.7535,pf=0.92,Vminpu=0.92,Vmaxpu=1.5,model=1,daily=RES1_24,status=variable
new load.3001033955M1 bus1=RML1052364187.1.2.3.0,Phases=3,kv=0.22,kW=0.65266,pf=0.92,Vminpu=0.92,Vmaxpu=1.5,model=1,daily=RES4_20,status=variable
new load.3001033963M1 bus1=RML1052363998.1.0,Phases=1,kv=0.127,kW=0.31276,pf=0.92,Vminpu=0.92,Vmaxpu=1.5,model=1,daily=RES2_27,status=variable
new load.3001033971M1 bus1=RML1052363809.3.0,Phases=1,kv=0.127,kW=0.20532,pf=0.92,Vminpu=0.92,Vmaxpu=1.5,model=1,daily=RES2_27,status=variable
new load.3001033981M1 bus1=RML1060945595.1.2.0,Phases=2,kv=0.22,kW=0.5539,pf=0.92,Vminpu=0.92,Vmaxpu=1.5,model=1,daily=RES3_19,status=variable
new load.3001033989M1 bus1=RML1052363641.2.3.0,Phases=2,kv=0.22,kW=0.9907,pf=0.92,Vminpu=0.92,Vmaxpu=1.5,model=1,daily=RES1_24,status=variable
new load.3001034007M1 bus1=RML1052361177.3.0,Phases=1,kv=0.127,kW=0.39394,pf=0.92,Vminpu=0.92,Vmaxpu=1.5,model=1,daily=RES2_27,status=variable
new load.3001034015M1 bus1=RML1052361037.1.2.3.0,Phases=3,kv=0.22,kW=0.56678,pf=0.92,Vminpu=0.92,Vmaxpu=1.5,model=1,daily=RES3_19,status=variable
new load.3001034034M1 bus1=RML1052361324.3.0,Phases=1,kv=0.127,kW=0.32708,pf=0.92,Vminpu=0.92,Vmaxpu=1.5,model=1,daily=RES2_27,status=variable
new load.3001034042M1 bus1=RML1052360995.1.0,Phases=1,kv=0.127,kW=0.28018,pf=0.92,Vminpu=0.92,Vmaxpu=1.5,model=1,daily=RES3_19,status=variable
new load.3001034051M1 bus1=RML1052359525.3.0,Phases=1,kv=0.127,kW=0.22682,pf=0.92,Vminpu=0.92,Vmaxpu=1.5,model=1,daily=RES2_27,status=variable
new load.3001034071M1 bus1=RML1052359126.1.2.3.0,Phases=3,kv=0.22,kW=0.67628,pf=0.92,Vminpu=0.92,Vmaxpu=1.5,model=1,daily=RES3_19,status=variable
new load.3001034080M1 bus1=RML1052359182.1.2.3.0,Phases=3,kv=0.22,kW=3.01438,pf=0.92,Vminpu=0.92,Vmaxpu=1.5,model=1,daily=COM3_24,status=variable
new load.3001034090M1 bus1=RML1052358867.2.0,Phases=1,kv=0.127,kW=0.61396,pf=0.92,Vminpu=0.92,Vmaxpu=1.5,model=1,daily=RES1_24,status=variable
new load.3001034099M1 bus1=RML1052358839.1.0,Phases=1,kv=0.127,kW=0.2292,pf=0.92,Vminpu=0.92,Vmaxpu=1.5,model=1,daily=RES2_27,status=variable
new load.3001034109M1 bus1=RML1052358902.1.0,Phases=1,kv=0.127,kW=0.2101,pf=0.92,Vminpu=0.92,Vmaxpu=1.5,model=1,daily=RES2_27,status=variable
new load.3001034117M1 bus1=RML1052358636.1.0,Phases=1,kv=0.127,kW=0.25308,pf=0.92,Vminpu=0.92,Vmaxpu=1.5,model=1,daily=RES2_27,status=variable
new load.3001034128M1 bus1=RML1052358258.3.0,Phases=1,kv=0.127,kW=0.5442,pf=0.92,Vminpu=0.92,Vmaxpu=1.5,model=1,daily=RES1_24,status=variable
new load.3001034138M1 bus1=RML1052359280.3.0,Phases=1,kv=0.127,kW=0.37962,pf=0.92,Vminpu=0.92,Vmaxpu=1.5,model=1,daily=RES2_27,status=variable
new load.3001034150M1 bus1=RML1052359476.3.0,Phases=1,kv=0.127,kW=0.2483,pf=0.92,Vminpu=0.92,Vmaxpu=1.5,model=1,daily=RES2_27,status=variable
new load.3001211333M1 bus1=RML1052318645.2.0,Phases=1,kv=0.12,kW=1.1595,pf=0.92,Vminpu=0.92,Vmaxpu=1.5,model=1,daily=RES2_2,status=variable
new load.3001211359M1 bus1=RML1060236299.1.2.0,Phases=2,kv=0.22,kW=0.96624,pf=0.92,Vminpu=0.92,Vmaxpu=1.5,model=1,daily=RES2_2,status=variable
new load.3001211367M1 bus1=RML1052316902.3.0,Phases=1,kv=0.127,kW=0.5106,pf=0.92,Vminpu=0.92,Vmaxpu=1.5,model=1,daily=RES1_2,status=variable
new load.3001211376M1 bus1=RML1052316958.1.2.3.0,Phases=3,kv=0.22,kW=0.01964,pf=0.92,Vminpu=0.92,Vmaxpu=1.5,model=1,daily=RES1_2,status=variable
new load.3001572029M1 bus1=RML1052361548.2.0,Phases=1,kv=0.127,kW=3.6695,pf=0.92,Vminpu=0.92,Vmaxpu=1.5,model=1,daily=COM3_9,status=variable
new load.3001572054M1 bus1=RML1052358566.1.0,Phases=1,kv=0.127,kW=0.73594,pf=0.92,Vminpu=0.92,Vmaxpu=1.5,model=1,daily=RES2_7,status=variable
new load.3001572063M1 bus1=RML1052358454.1.2.3.0,Phases=3,kv=0.22,kW=3.13164,pf=0.92,Vminpu=0.92,Vmaxpu=1.5,model=1,daily=COM3_9,status=variable
new load.3001572072M1 bus1=RML1052357278.2.3.0,Phases=2,kv=0.22,kW=2.61176,pf=0.92,Vminpu=0.92,Vmaxpu=1.5,model=1,daily=RES3_8,status=variable
new load.3001572080M1 bus1=RML1052357320.3.0,Phases=1,kv=0.127,kW=0.32974,pf=0.92,Vminpu=0.92,Vmaxpu=1.5,model=1,daily=RES1_7,status=variable
new load.3001572088M1 bus1=RML1052358097.2.0,Phases=1,kv=0.127,kW=0.47724,pf=0.92,Vminpu=0.92,Vmaxpu=1.5,model=1,daily=RES1_7,status=variable
new load.3001572096M1 bus1=RML1052358090.2.0,Phases=1,kv=0.127,kW=0.3384,pf=0.92,Vminpu=0.92,Vmaxpu=1.5,model=1,daily=RES1_7,status=variable
new load.3001572108M1 bus1=RML1052360330.2.3.0,Phases=2,kv=0.22,kW=0.0251,pf=0.92,Vminpu=0.92,Vmaxpu=1.5,model=1,daily=COM1_12,status=variable
new load.3001572116M1 bus1=RML1052361996.2.3.0,Phases=2,kv=0.22,kW=0.95372,pf=0.92,Vminpu=0.92,Vmaxpu=1.5,model=1,daily=RES2_7,status=variable
new load.3001572137M1 bus1=RML1052360715.1.0,Phases=1,kv=0.127,kW=0.87862,pf=0.92,Vminpu=0.92,Vmaxpu=1.5,model=1,daily=RES2_7,status=variable
new load.3001572154M1 bus1=RML1052429959.1.0,Phases=1,kv=0.127,kW=1.12644,pf=0.92,Vminpu=0.92,Vmaxpu=1.5,model=1,daily=RES2_7,status=variable
new load.3001572170M1 bus1=RML1052362122.1.0,Phases=1,kv=0.127,kW=1.14976,pf=0.92,Vminpu=0.92,Vmaxpu=1.5,model=1,daily=COM1_12,status=variable
new load.3001572178M1 bus1=RML1052362276.1.0,Phases=1,kv=0.127,kW=0.74344,pf=0.92,Vminpu=0.92,Vmaxpu=1.5,model=1,daily=RES2_7,status=variable
new load.3001572187M1 bus1=RML1052430113.1.0,Phases=1,kv=0.127,kW=0.5727,pf=0.92,Vminpu=0.92,Vmaxpu=1.5,model=1,daily=RES1_7,status=variable
new load.3001572195M1 bus1=RML1052430393.1.0,Phases=1,kv=0.127,kW=0.81854,pf=0.92,Vminpu=0.92,Vmaxpu=1.5,model=1,daily=RES2_7,status=variable
new load.3001572203M1 bus1=RML1052430232.2.0,Phases=1,kv=0.127,kW=0.64212,pf=0.92,Vminpu=0.92,Vmaxpu=1.5,model=1,daily=RES1_7,status=variable
new load.3001211343M1 bus1=RML1052318561.1.2.3.0,Phases=3,kv=0.22,kW=0.45168,pf=0.92,Vminpu=0.92,Vmaxpu=1.5,model=1,daily=RES1_2,status=variable
new load.3001211351M1 bus1=RML1054213832.3.0,Phases=1,kv=0.127,kW=0.45092,pf=0.92,Vminpu=0.92,Vmaxpu=1.5,model=1,daily=RES2_2,status=variable
new load.3001211360M1 bus1=RML1052316013.1.0,Phases=1,kv=0.127,kW=1.21676,pf=0.92,Vminpu=0.92,Vmaxpu=1.5,model=1,daily=RES2_2,status=variable
new load.3001211368M1 bus1=RML1052316895.1.2.3.0,Phases=3,kv=0.22,kW=0.06442,pf=0.92,Vminpu=0.92,Vmaxpu=1.5,model=1,daily=RES2_2,status=variable
new load.3001572021M1 bus1=RML1052363046.1.0,Phases=1,kv=0.127,kW=0.04016,pf=0.92,Vminpu=0.92,Vmaxpu=1.5,model=1,daily=COM1_12,status=variable
new load.3001572030M1 bus1=RML1052361394.2.0,Phases=1,kv=0.127,kW=0.269,pf=0.92,Vminpu=0.92,Vmaxpu=1.5,model=1,daily=RES1_7,status=variable
new load.3001572038M1 bus1=RML1052359364.1.0,Phases=1,kv=0.127,kW=0.53722,pf=0.92,Vminpu=0.92,Vmaxpu=1.5,model=1,daily=COM1_12,status=variable
new load.3001572046M1 bus1=RML1060738897.1.3.0,Phases=2,kv=0.22,kW=1.51616,pf=0.92,Vminpu=0.92,Vmaxpu=1.5,model=1,daily=RES3_8,status=variable
new load.3001572055M1 bus1=RML1052358573.2.3.0,Phases=2,kv=0.22,kW=2.0695,pf=0.92,Vminpu=0.92,Vmaxpu=1.5,model=1,daily=RES3_8,status=variable
new load.3001572064M1 bus1=RML1052358454.1.2.3.0,Phases=3,kv=0.22,kW=1.38176,pf=0.92,Vminpu=0.92,Vmaxpu=1.5,model=1,daily=RES2_7,status=variable
new load.3001572073M1 bus1=RML1052357250.2.0,Phases=1,kv=0.127,kW=2.1027,pf=0.92,Vminpu=0.92,Vmaxpu=1.5,model=1,daily=RES3_8,status=variable
new load.3001572081M1 bus1=RML1052357334.1.0,Phases=1,kv=0.127,kW=0.89364,pf=0.92,Vminpu=0.92,Vmaxpu=1.5,model=1,daily=RES2_7,status=variable
new load.3001572089M1 bus1=RML1052358027.1.0,Phases=1,kv=0.127,kW=0.58574,pf=0.92,Vminpu=0.92,Vmaxpu=1.5,model=1,daily=RES2_7,status=variable
new load.3001572097M1 bus1=RML1052358181.1.2.0,Phases=2,kv=0.22,kW=0.64212,pf=0.92,Vminpu=0.92,Vmaxpu=1.5,model=1,daily=RES1_7,status=variable
new load.3001572109M1 bus1=RML1052361422.1.2.0,Phases=2,kv=0.22,kW=2.44576,pf=0.92,Vminpu=0.92,Vmaxpu=1.5,model=1,daily=RES3_8,status=variable
new load.3001572117M1 bus1=RML1052360771.2.0,Phases=1,kv=0.127,kW=0.70286,pf=0.92,Vminpu=0.92,Vmaxpu=1.5,model=1,daily=RES1_7,status=variable
new load.3001572146M1 bus1=RML1052362199.1.0,Phases=1,kv=0.127,kW=1.72642,pf=0.92,Vminpu=0.92,Vmaxpu=1.5,model=1,daily=RES3_8,status=variable
new load.3001572155M1 bus1=RML1052429973.3.0,Phases=1,kv=0.127,kW=0.04338,pf=0.92,Vminpu=0.92,Vmaxpu=1.5,model=1,daily=RES1_7,status=variable
new load.3001572163M1 bus1=RML1052430169.3.0,Phases=1,kv=0.127,kW=0.42518,pf=0.92,Vminpu=0.92,Vmaxpu=1.5,model=1,daily=RES1_7,status=variable
new load.3001572171M1 bus1=RML1052362129.1.0,Phases=1,kv=0.127,kW=0.47724,pf=0.92,Vminpu=0.92,Vmaxpu=1.5,model=1,daily=RES1_7,status=variable
new load.3001572179M1 bus1=RML1052362311.1.2.3.0,Phases=3,kv=0.22,kW=0.49706,pf=0.92,Vminpu=0.92,Vmaxpu=1.5,model=1,daily=COM1_12,status=variable
new load.3001572188M1 bus1=RML1052430008.1.2.0,Phases=2,kv=0.22,kW=0.82434,pf=0.92,Vminpu=0.92,Vmaxpu=1.5,model=1,daily=RES1_7,status=variable
new load.3001572204M1 bus1=RML1052430218.3.0,Phases=1,kv=0.127,kW=0.48592,pf=0.92,Vminpu=0.92,Vmaxpu=1.5,model=1,daily=RES1_7,status=variable
new load.3001572212M1 bus1=RML1052429980.1.2.3.0,Phases=3,kv=0.22,kW=0.57072,pf=0.92,Vminpu=0.92,Vmaxpu=1.5,model=1,daily=RES2_7,status=variable
new load.3001211332M1 bus1=RML1052317070.2.0,Phases=1,kv=0.12,kW=0.8732,pf=0.92,Vminpu=0.92,Vmaxpu=1.5,model=1,daily=RES2_2,status=variable
new load.3001211340M1 bus1=RML1052318575.1.2.3.0,Phases=3,kv=0.22,kW=0.67,pf=0.92,Vminpu=0.92,Vmaxpu=1.5,model=1,daily=COM2_1,status=variable
new load.3001211349M1 bus1=RML1052318610.1.0,Phases=1,kv=0.127,kW=0.5597,pf=0.92,Vminpu=0.92,Vmaxpu=1.5,model=1,daily=RES1_2,status=variable
new load.3001211358M1 bus1=RML1052316027.3.0,Phases=1,kv=0.127,kW=0.78732,pf=0.92,Vminpu=0.92,Vmaxpu=1.5,model=1,daily=RES2_2,status=variable
new load.3001211366M1 bus1=RML1052316888.3.0,Phases=1,kv=0.127,kW=0.4449,pf=0.92,Vminpu=0.92,Vmaxpu=1.5,model=1,daily=RES5_4,status=variable
new load.3001211375M1 bus1=RML1052316958.1.2.3.0,Phases=3,kv=0.22,kW=0.41976,pf=0.92,Vminpu=0.92,Vmaxpu=1.5,model=1,daily=COM1_4,status=variable
new load.3001572019M1 bus1=RML1052363039.1.0,Phases=1,kv=0.127,kW=2.20412,pf=0.92,Vminpu=0.92,Vmaxpu=1.5,model=1,daily=COM1_12,status=variable
new load.3001572028M1 bus1=RML1052361555.2.3.0,Phases=2,kv=0.22,kW=0.60076,pf=0.92,Vminpu=0.92,Vmaxpu=1.5,model=1,daily=RES2_7,status=variable
new load.3001572053M1 bus1=RML1052359175.1.0,Phases=1,kv=0.127,kW=2.87736,pf=0.92,Vminpu=0.92,Vmaxpu=1.5,model=1,daily=RES3_8,status=variable
new load.3001572062M1 bus1=RML1052358468.1.0,Phases=1,kv=0.127,kW=2.80398,pf=0.92,Vminpu=0.92,Vmaxpu=1.5,model=1,daily=RES4_11,status=variable
new load.3001572079M1 bus1=RML1052357355.2.0,Phases=1,kv=0.127,kW=0.57072,pf=0.92,Vminpu=0.92,Vmaxpu=1.5,model=1,daily=RES2_7,status=variable
new load.3001572087M1 bus1=RML1052358139.1.0,Phases=1,kv=0.127,kW=0.90866,pf=0.92,Vminpu=0.92,Vmaxpu=1.5,model=1,daily=RES2_7,status=variable
new load.3001572095M1 bus1=RML1052358174.1.0,Phases=1,kv=0.127,kW=1.05884,pf=0.92,Vminpu=0.92,Vmaxpu=1.5,model=1,daily=RES2_7,status=variable
new load.3001572107M1 bus1=RML1052360351.2.0,Phases=1,kv=0.127,kW=0.64212,pf=0.92,Vminpu=0.92,Vmaxpu=1.5,model=1,daily=RES1_7,status=variable
new load.3001572115M1 bus1=RML1052362038.1.2.3.0,Phases=3,kv=0.22,kW=0.81854,pf=0.92,Vminpu=0.92,Vmaxpu=1.5,model=1,daily=RES2_7,status=variable
new load.3001572123M1 bus1=RML1052360631.1.2.0,Phases=2,kv=0.22,kW=0.91616,pf=0.92,Vminpu=0.92,Vmaxpu=1.5,model=1,daily=RES2_7,status=variable
new load.3001572136M1 bus1=RML1052360666.3.0,Phases=1,kv=0.127,kW=0.84858,pf=0.92,Vminpu=0.92,Vmaxpu=1.5,model=1,daily=RES2_7,status=variable
new load.3001572153M1 bus1=RML1052430183.1.0,Phases=1,kv=0.127,kW=0.21692,pf=0.92,Vminpu=0.92,Vmaxpu=1.5,model=1,daily=RES1_7,status=variable
new load.3001572161M1 bus1=RML1052430162.1.3.0,Phases=2,kv=0.22,kW=0.68338,pf=0.92,Vminpu=0.92,Vmaxpu=1.5,model=1,daily=RES2_7,status=variable
new load.3001572169M1 bus1=RML1052362115.1.2.3.0,Phases=3,kv=0.22,kW=10.16986,pf=0.92,Vminpu=0.92,Vmaxpu=1.5,model=1,daily=COM4_10,status=variable
new load.3001572177M1 bus1=RML1052362269.2.0,Phases=1,kv=0.127,kW=0.58138,pf=0.92,Vminpu=0.92,Vmaxpu=1.5,model=1,daily=RES1_7,status=variable
new load.3001572186M1 bus1=RML1052362402.1.0,Phases=1,kv=0.127,kW=0.20826,pf=0.92,Vminpu=0.92,Vmaxpu=1.5,model=1,daily=RES1_7,status=variable
new load.3001572194M1 bus1=RML1052430351.1.2.0,Phases=2,kv=0.22,kW=1.34422,pf=0.92,Vminpu=0.92,Vmaxpu=1.5,model=1,daily=RES2_7,status=variable
new load.3001572202M1 bus1=RML1052430190.1.0,Phases=1,kv=0.127,kW=1.07386,pf=0.92,Vminpu=0.92,Vmaxpu=1.5,model=1,daily=RES2_7,status=variable
new load.3001572210M1 bus1=RML1052430309.2.0,Phases=1,kv=0.127,kW=0.96874,pf=0.92,Vminpu=0.92,Vmaxpu=1.5,model=1,daily=RES2_7,status=variable
new load.3001211336M1 bus1=RML1052316986.2.0,Phases=1,kv=0.12,kW=0.47132,pf=0.92,Vminpu=0.92,Vmaxpu=1.5,model=1,daily=RES1_2,status=variable
new load.3001211354M1 bus1=RML1052318624.1.2.3.0,Phases=3,kv=0.22,kW=1.15466,pf=0.92,Vminpu=0.92,Vmaxpu=1.5,model=1,daily=IND2_2,status=variable
new load.3001211362M1 bus1=RML1052315992.1.2.0,Phases=2,kv=0.22,kW=0.94478,pf=0.92,Vminpu=0.92,Vmaxpu=1.5,model=1,daily=RES2_2,status=variable
new load.3001211370M1 bus1=RML1052316930.3.0,Phases=1,kv=0.127,kW=0.75868,pf=0.92,Vminpu=0.92,Vmaxpu=1.5,model=1,daily=RES2_2,status=variable
new load.3001572015M1 bus1=RML1052363116.1.2.0,Phases=2,kv=0.22,kW=0.00868,pf=0.92,Vminpu=0.92,Vmaxpu=1.5,model=1,daily=RES1_7,status=variable
new load.3001572023M1 bus1=RML1052363067.1.2.3.0,Phases=3,kv=0.22,kW=15.11008,pf=0.92,Vminpu=0.92,Vmaxpu=1.5,model=1,daily=IND4_6,status=variable
new load.3001572040M1 bus1=RML1052359322.1.2.3.0,Phases=3,kv=0.22,kW=1.79072,pf=0.92,Vminpu=0.92,Vmaxpu=1.5,model=1,daily=RES4_11,status=variable
new load.3001572048M1 bus1=RML1052359168.1.3.0,Phases=2,kv=0.22,kW=2.61176,pf=0.92,Vminpu=0.92,Vmaxpu=1.5,model=1,daily=RES3_8,status=variable
new load.3001572057M1 bus1=RML1052358538.1.0,Phases=1,kv=0.127,kW=0.98376,pf=0.92,Vminpu=0.92,Vmaxpu=1.5,model=1,daily=RES2_7,status=variable
new load.3001572067M1 bus1=RML1052358482.3.0,Phases=1,kv=0.127,kW=0.93118,pf=0.92,Vminpu=0.92,Vmaxpu=1.5,model=1,daily=RES2_7,status=variable
new load.3001572075M1 bus1=RML1052357236.3.0,Phases=1,kv=0.127,kW=1.1039,pf=0.92,Vminpu=0.92,Vmaxpu=1.5,model=1,daily=RES2_7,status=variable
new load.3001572083M1 bus1=RML1052358076.1.0,Phases=1,kv=0.127,kW=1.18652,pf=0.92,Vminpu=0.92,Vmaxpu=1.5,model=1,daily=RES2_7,status=variable
new load.3001572091M1 bus1=RML1052358006.2.0,Phases=1,kv=0.127,kW=0.7134,pf=0.92,Vminpu=0.92,Vmaxpu=1.5,model=1,daily=RES2_7,status=variable
new load.3001572111M1 bus1=RML1052361401.1.3.0,Phases=2,kv=0.22,kW=0.58914,pf=0.92,Vminpu=0.92,Vmaxpu=1.5,model=1,daily=RES5_9,status=variable
new load.3001572119M1 bus1=RML1052360694.2.3.0,Phases=2,kv=0.22,kW=0.47196,pf=0.92,Vminpu=0.92,Vmaxpu=1.5,model=1,daily=COM1_12,status=variable
new load.3001572132M1 bus1=RML1052360617.2.3.0,Phases=2,kv=0.22,kW=0.73594,pf=0.92,Vminpu=0.92,Vmaxpu=1.5,model=1,daily=RES2_7,status=variable
new load.3001572140M1 bus1=RML1052360757.1.0,Phases=1,kv=0.127,kW=0.64266,pf=0.92,Vminpu=0.92,Vmaxpu=1.5,model=1,daily=COM1_12,status=variable
new load.3001572157M1 bus1=RML1052429966.1.2.3.0,Phases=3,kv=0.22,kW=1.15094,pf=0.92,Vminpu=0.92,Vmaxpu=1.5,model=1,daily=RES3_8,status=variable
new load.3001572165M1 bus1=RML1052362220.1.0,Phases=1,kv=0.127,kW=0.2256,pf=0.92,Vminpu=0.92,Vmaxpu=1.5,model=1,daily=RES1_7,status=variable
new load.3001572173M1 bus1=RML1052362367.2.0,Phases=1,kv=0.127,kW=2.35722,pf=0.92,Vminpu=0.92,Vmaxpu=1.5,model=1,daily=RES3_8,status=variable
new load.3001572181M1 bus1=RML1052362332.2.3.0,Phases=2,kv=0.22,kW=0.39048,pf=0.92,Vminpu=0.92,Vmaxpu=1.5,model=1,daily=RES1_7,status=variable
new load.3001572190M1 bus1=RML1052430015.1.0,Phases=1,kv=0.127,kW=0.79602,pf=0.92,Vminpu=0.92,Vmaxpu=1.5,model=1,daily=RES2_7,status=variable
new load.3001572206M1 bus1=RML1054216268.1.0,Phases=1,kv=0.127,kW=1.14896,pf=0.92,Vminpu=0.92,Vmaxpu=1.5,model=1,daily=RES2_7,status=variable
new load.3001211338M1 bus1=RML1052317077.2.0,Phases=1,kv=0.12,kW=0.50078,pf=0.92,Vminpu=0.92,Vmaxpu=1.5,model=1,daily=RES1_2,status=variable
new load.3001211347M1 bus1=RML1052318582.1.2.3.0,Phases=3,kv=0.22,kW=1.1237,pf=0.92,Vminpu=0.92,Vmaxpu=1.5,model=1,daily=RES2_2,status=variable
new load.3001211356M1 bus1=RML1052317154.1.2.3.0,Phases=3,kv=0.22,kW=1.9324,pf=0.92,Vminpu=0.92,Vmaxpu=1.5,model=1,daily=IND1_3,status=variable
new load.3001211364M1 bus1=RML1052316874.1.2.3.0,Phases=3,kv=0.22,kW=0.26482,pf=0.92,Vminpu=0.92,Vmaxpu=1.5,model=1,daily=RES2_2,status=variable
new load.3001211372M1 bus1=RML1052316916.3.0,Phases=1,kv=0.127,kW=1.26786,pf=0.92,Vminpu=0.92,Vmaxpu=1.5,model=1,daily=RES3_2,status=variable
new load.3001572017M1 bus1=RML1052363109.1.2.3.0,Phases=3,kv=0.22,kW=2.17072,pf=0.92,Vminpu=0.92,Vmaxpu=1.5,model=1,daily=COM2_10,status=variable
new load.3001572025M1 bus1=RML1052361597.1.0,Phases=1,kv=0.127,kW=0.9387,pf=0.92,Vminpu=0.92,Vmaxpu=1.5,model=1,daily=RES2_7,status=variable
new load.3001572034M1 bus1=RML1052360295.2.0,Phases=1,kv=0.127,kW=2.28778,pf=0.92,Vminpu=0.92,Vmaxpu=1.5,model=1,daily=RES4_11,status=variable
new load.3001572042M1 bus1=RML1052359329.3.0,Phases=1,kv=0.127,kW=0.48592,pf=0.92,Vminpu=0.92,Vmaxpu=1.5,model=1,daily=RES1_7,status=variable
new load.3001572059M1 bus1=RML1052358510.2.0,Phases=1,kv=0.127,kW=0.14268,pf=0.92,Vminpu=0.92,Vmaxpu=1.5,model=1,daily=RES2_7,status=variable
new load.3001572069M1 bus1=RML1052358496.1.0,Phases=1,kv=0.127,kW=0.84108,pf=0.92,Vminpu=0.92,Vmaxpu=1.5,model=1,daily=RES2_7,status=variable
new load.3001572085M1 bus1=RML1052358069.2.3.0,Phases=2,kv=0.22,kW=2.12482,pf=0.92,Vminpu=0.92,Vmaxpu=1.5,model=1,daily=RES3_8,status=variable
new load.3001572093M1 bus1=RML1052357999.2.0,Phases=1,kv=0.127,kW=0.50328,pf=0.92,Vminpu=0.92,Vmaxpu=1.5,model=1,daily=RES1_7,status=variable
new load.3001572113M1 bus1=RML1052362017.1.2.3.0,Phases=3,kv=0.22,kW=0.30124,pf=0.92,Vminpu=0.92,Vmaxpu=1.5,model=1,daily=COM1_12,status=variable
new load.3001572121M1 bus1=RML1052360708.3.0,Phases=1,kv=0.127,kW=0.65078,pf=0.92,Vminpu=0.92,Vmaxpu=1.5,model=1,daily=RES1_7,status=variable
new load.3001572134M1 bus1=RML1052360722.1.2.0,Phases=2,kv=0.22,kW=1.47188,pf=0.92,Vminpu=0.92,Vmaxpu=1.5,model=1,daily=RES2_7,status=variable
new load.3001572142M1 bus1=RML1052362052.1.3.0,Phases=2,kv=0.22,kW=1.48296,pf=0.92,Vminpu=0.92,Vmaxpu=1.5,model=1,daily=RES3_8,status=variable
new load.3001572151M1 bus1=RML1053750040.1.2.3.0,Phases=3,kv=0.22,kW=0.87862,pf=0.92,Vminpu=0.92,Vmaxpu=1.5,model=1,daily=RES2_7,status=variable
new load.3001572159M1 bus1=RML1053928729.3.0,Phases=1,kv=0.127,kW=0.81104,pf=0.92,Vminpu=0.92,Vmaxpu=1.5,model=1,daily=RES2_7,status=variable
new load.3001572167M1 bus1=RML1052362248.1.2.0,Phases=2,kv=0.22,kW=0.59004,pf=0.92,Vminpu=0.92,Vmaxpu=1.5,model=1,daily=RES1_7,status=variable
new load.3001572175M1 bus1=RML1052362339.2.3.0,Phases=2,kv=0.22,kW=0.52566,pf=0.92,Vminpu=0.92,Vmaxpu=1.5,model=1,daily=RES2_7,status=variable
new load.3001572192M1 bus1=RML1052430064.2.0,Phases=1,kv=0.127,kW=0.42804,pf=0.92,Vminpu=0.92,Vmaxpu=1.5,model=1,daily=RES2_7,status=variable
new load.3001572200M1 bus1=RML1052430204.2.0,Phases=1,kv=0.127,kW=0.95372,pf=0.92,Vminpu=0.92,Vmaxpu=1.5,model=1,daily=RES2_7,status=variable
new load.3001572208M1 bus1=RML1052430316.2.0,Phases=1,kv=0.127,kW=2.24656,pf=0.92,Vminpu=0.92,Vmaxpu=1.5,model=1,daily=RES3_8,status=variable
new load.3001211331M1 bus1=RML1052317035.1.0,Phases=1,kv=0.12,kW=0.90898,pf=0.92,Vminpu=0.92,Vmaxpu=1.5,model=1,daily=RES2_2,status=variable
new load.3001211339M1 bus1=RML1052317091.2.0,Phases=1,kv=0.12,kW=0.78732,pf=0.92,Vminpu=0.92,Vmaxpu=1.5,model=1,daily=RES2_2,status=variable
new load.3001211348M1 bus1=RML1052318582.1.2.3.0,Phases=3,kv=0.22,kW=0.79446,pf=0.92,Vminpu=0.92,Vmaxpu=1.5,model=1,daily=RES2_2,status=variable
new load.3001211357M1 bus1=RML1052316020.2.0,Phases=1,kv=0.127,kW=0.93046,pf=0.92,Vminpu=0.92,Vmaxpu=1.5,model=1,daily=RES2_2,status=variable
new load.3001211365M1 bus1=RML1052316881.3.0,Phases=1,kv=0.127,kW=1.55744,pf=0.92,Vminpu=0.92,Vmaxpu=1.5,model=1,daily=RES3_2,status=variable
new load.3001211373M1 bus1=RML1052316944.1.0,Phases=1,kv=0.127,kW=1.74526,pf=0.92,Vminpu=0.92,Vmaxpu=1.5,model=1,daily=RES3_2,status=variable
new load.3001572018M1 bus1=RML1052363095.1.2.3.0,Phases=3,kv=0.22,kW=1.03096,pf=0.92,Vminpu=0.92,Vmaxpu=1.5,model=1,daily=COM2_10,status=variable
new load.3001572027M1 bus1=RML1055055148.1.2.3.0,Phases=3,kv=0.22,kW=0.67278,pf=0.92,Vminpu=0.92,Vmaxpu=1.5,model=1,daily=COM1_12,status=variable
new load.3001572035M1 bus1=RML1052360288.2.0,Phases=1,kv=0.127,kW=0.01004,pf=0.92,Vminpu=0.92,Vmaxpu=1.5,model=1,daily=COM1_12,status=variable
...
